STAAD SPACE
START JOB INFORMATION
ENGINEER DATE 17-Jul-23
END JOB INFORMATION
INPUT WIDTH 79
UNIT METER KN
JOINT COORDINATES
1 0 0 0; 2 2.76 0 0; 3 0 0 3.36; 4 2.76 0 3.36; 5 0 -2.275 0; 6 2.76 -2.275 0;
7 0 -2.275 3.36; 8 2.76 -2.275 3.36; 9 0 3.75 0; 10 2.76 3.75 0;
11 0 3.75 3.36; 12 2.76 3.75 3.36; 13 0 7.5 0; 14 2.76 7.5 0; 15 0 7.5 3.36;
16 2.76 7.5 3.36; 17 0 11.25 0; 18 2.76 11.25 0; 19 0 11.25 3.36;
20 2.76 11.25 3.36; 21 0 15 0; 22 2.76 15 0; 23 0 15 3.36; 24 2.76 15 3.36;
25 0 18.75 0; 26 2.76 18.75 0; 27 0 18.75 3.36; 28 2.76 18.75 3.36;
29 0 22.5 0; 30 2.76 22.5 0; 31 0 22.5 3.36; 32 2.76 22.5 3.36; 33 0 26.25 0;
34 2.76 26.25 0; 35 0 26.25 3.36; 36 2.76 26.25 3.36; 37 0 30 0; 38 2.76 30 0;
39 0 30 3.36; 40 2.76 30 3.36; 41 0 33.75 0; 42 2.76 33.75 0; 43 0 33.75 3.36;
44 2.76 33.75 3.36; 49 0 3.75 -1; 50 2.76 3.75 -1; 51 0 7.5 -1; 52 2.76 7.5 -1;
53 0 11.25 -1; 54 2.76 11.25 -1; 55 0 15 -1; 56 2.76 15 -1; 57 0 18.75 -1;
58 2.76 18.75 -1; 59 0 22.5 -1; 60 2.76 22.5 -1; 61 0 26.25 -1;
62 2.76 26.25 -1; 63 0 30 -1; 64 2.76 30 -1; 65 0 34.95 0; 66 2.76 34.95 0;
67 0 34.95 3.36; 68 2.76 34.95 3.36; 69 2.76 37.5 3.36; 70 2.76 37.5 0;
71 0 37.5 0; 72 0 37.5 3.36; 73 0 33.75 -1; 74 2.76 33.75 -1; 75 0 34.95 2.24;
76 0 34.95 1.12; 77 2.76 34.95 1.12; 78 2.76 34.95 2.24; 79 0 37.5 -1;
80 2.76 37.5 -1; 81 0 37.5 2.24; 82 0 37.5 1.12; 83 2.76 37.5 1.12;
84 2.76 37.5 2.24; 85 0 3.463 0; 86 2.76 3.463 0; 87 0 3.463 3.36;
88 2.76 3.463 3.36; 89 0.287 3.75 0; 90 0.287 3.75 3.36; 91 2.473 3.75 0;
92 2.473 3.75 3.36; 93 0 3.75 3.073; 94 2.76 3.75 3.073; 95 0 3.75 0.287;
# ... 4 like lines cut
MEMBER INCIDENCES
1 5 1; 2 1 85; 3 6 2; 4 2 86; 5 7 3; 6 3 87; 7 8 4; 8 4 88; 9 1 2; 10 3 1;
11 4 2; 12 3 4; 13 9 89; 14 11 93; 15 12 94; 16 11 90; 17 9 98; 18 10 104;
19 11 100; 20 12 106; 21 13 103; 22 15 102; 23 16 107; 24 15 101; 25 13 17;
26 14 18; 27 15 19; 28 16 20; 29 17 18; 30 19 17; 31 20 18; 32 19 20; 33 17 21;
34 18 22; 35 19 23; 36 20 24; 37 21 22; 38 23 21; 39 24 22; 40 23 24; 41 21 25;
42 22 26; 43 23 27; 44 24 28; 45 25 26; 46 27 25; 47 28 26; 48 27 28; 49 25 29;
50 26 30; 51 27 31; 52 28 32; 53 29 30; 54 31 29; 55 32 30; 56 31 32; 57 29 33;
58 30 34; 59 31 35; 60 32 36; 61 33 34; 62 35 33; 63 36 34; 64 35 36; 65 33 37;
66 34 38; 67 35 39; 68 36 40; 69 37 38; 70 39 37; 71 40 38; 72 39 40; 73 37 41;
74 38 42; 75 39 43; 76 40 44; 77 41 42; 78 43 41; 79 44 42; 80 43 44; 89 9 49;
90 10 50; 91 49 50; 92 13 51; 93 14 52; 94 51 52; 95 17 53; 96 18 54; 97 53 54;
98 21 55; 99 22 56; 100 55 56; 101 25 57; 102 26 58; 103 57 58; 104 29 59;
105 30 60; 106 59 60; 107 33 61; 108 34 62; 109 61 62; 110 37 63; 111 38 64;
112 63 64; 113 41 65; 114 43 67; 115 44 68; 116 42 66; 117 68 78; 118 65 66;
119 67 68; 120 67 75; 121 69 84; 122 71 70; 123 72 69; 124 72 81; 125 65 71;
126 68 69; 127 66 70; 128 67 72; 129 41 73; 130 42 74; 131 73 74; 132 75 76;
133 76 65; 134 77 66; 135 76 77; 136 78 77; 137 75 78; 138 71 79; 139 70 80;
140 79 80; 141 81 82; 142 82 71; 143 83 70; 144 82 83; 145 84 83; 146 81 84;
147 85 9; 148 86 10; 149 87 11; 150 88 12; 151 89 91; 152 90 92; 153 91 10;
154 92 12; 155 93 95; 156 94 96; 157 95 9; 158 96 10; 159 85 95; 160 87 90;
# ... 5 like lines cut
DEFINE MATERIAL START
ISOTROPIC CONCRETE
E 2.17185e+07
POISSON 0.17
DENSITY 23.5616
ALPHA 1e-05
DAMP 0.05
TYPE CONCRETE
STRENGTH FCU 27579
ISOTROPIC STEEL
E 2.05e+08
POISSON 0.3
DENSITY 76.8195
ALPHA 1.2e-05
DAMP 0.03
TYPE STEEL
STRENGTH FY 253200 FU 407800 RY 1.5 RT 1.2
END DEFINE MATERIAL
MEMBER PROPERTY AMERICAN
1 3 5 7 PRIS YD 0.6 ZD 0.6
9 TO 12 PRIS YD 0.45 ZD 0.23
MEMBER PROPERTY TATASTRUCTURA
2 4 6 8 17 TO 20 25 TO 28 33 TO 36 41 TO 44 49 TO 52 57 TO 60 65 TO 68 73 -
74 TO 76 113 TO 116 125 TO 128 147 TO 150 169 172 179 -
183 TABLE ST 220X220X10.0SHS
13 TO 16 21 TO 24 29 TO 32 37 TO 40 45 TO 48 53 TO 56 61 TO 64 69 TO 72 77 -
78 TO 80 89 TO 112 117 TO 124 129 TO 146 151 TO 158 167 170 173 175 177 181 -
184 186 TABLE ST 240X120X8.0RHS
159 TO 166 171 174 176 178 180 182 185 187 TABLE ST 240X120X8.0RHS
CONSTANTS
MATERIAL CONCRETE MEMB 1 3 5 7 9 TO 12
MATERIAL STEEL MEMB 2 4 6 8 13 TO 80 89 TO 167 169 TO 187
SUPPORTS
5 TO 8 FIXED
*******************************************************************
***********************************************************************
*******************************************************************************
***********************************************************************
*------AS PER IS:1893-2016-----
*  SEISMIC ZONE    (hyderabad)   ZONE=II AS PER IS:1893-2016
*  ZONE FACTOR                      Z=0.10
*  RESPONCE REDUCTION FACTOR       R =3
*  IMPORTANCE FACTOR               I =1.5
*  ROC/SOIL SITES FACTOR           SS=2(1 FOR ROCX,2 FOR MEDIUM 3 FOR soft soils )
*  OPTIONAL VALUE FOR TYPE OF STRU ST=1(1 FOR R.C.C,2 FOR STEEL )
***********************************************************************
*DEFINE 1893 LOAD
*ZONE 0.1 RF 3 I 1.5 SS 2 ST 1 DM 0.05 PX 2.03 PZ 1.84
**************************************************************************
***********************************************
*LOAD 1 SEISMIC IN X-DIRECTION
*1893 LOAD X 1
*LOAD 2 SEISMIC IN -X-DIRECTION
*1893 LOAD X -1
*LOAD 3 SEISMIC IN Z-DIRECTION
*1893 LOAD Z 1
*LOAD 4 SEISMIC IN -Z-DIRECTION
*1893 LOAD Z -1
*******************************************************
**********************************
*LOAD 7 WL+X
*WIND LOAD X 1 TYPE 1
*LOAD 8 WL-X
*WIND LOAD X -1 TYPE 1
*LOAD 9 WL+Z
*WIND LOAD Z 1 TYPE 1
*LOAD 10 WL-Z
*WIND LOAD Z -1 TYPE 1
**************************
*******************************
*WIND LOAD CALCULATIONS
********************************
*BASIC WIND SPEED (Vb)=44M/SEC
*RISK COEFFICIENT-k1-1.00
*TERRAIN,HEIGHT AND STRUCTURE SIZE FACTOR - K2 FOR 10mt=1,FOR 15mt=1.05,FOR 20mt=1.07,FOR 30mt=1.12 FOR 50mt=1.17 (CATEGORY-2& CLASS-B)and
*TOPOGRAPHY FACTOR-K3-1.0
* DESIGN WIND SPEED VZ=(Vb*K1*K2*K3)
*FOR 10mt VZ=44*1*1*1=44
*FOR 15mt VZ=44*1*1.05*1=46.2
*FOR 20mt VZ=44*1*1.07*1=47.08
*FOR 30mt VZ=44*1*1.12*1=49.28
*FOR 50mt VZ=44*1*1.17*1=51.48
*DESIGN WIND PRESSURE up to 10mts=PZ=0.6(VZ)?
*=0.6(43.12)?/1000=1.16 KN/M?
* up to 15 mts PZ = 0.6(46.2)^2/1000=1.28 KN/M^2
* up to 20 mts PZ = 0.6(47.08)^2/1000=1.32 KN/M^2
* up to 30 mts PZ = 0.6(49.28)^2/1000=1.45 KN/M^2
* up to 50 mts PZ = 0.6(51.48)^2/1000=1.59 KN/M^2
***************************************************
*DEFINE WIND LOAD
*TYPE 1
*INT 0 1.59 HEIG  2  37.5
****************************************************
LOAD 1 LOADTYPE Dead  TITLE DL
SELFWEIGHT Y -1 
FLOOR LOAD
YRANGE 3.75 3.75 FLOAD -4.125 XRANGE 0 2.76  ZRANGE -1 0  GY
YRANGE 7.5 7.5 FLOAD -4.125 XRANGE 0 2.76  ZRANGE -1 0  GY
YRANGE 11.25 11.25 FLOAD -4.125 XRANGE 0 2.76  ZRANGE -1 0  GY
YRANGE 15 15 FLOAD -4.125 XRANGE 0 2.76  ZRANGE -1 0  GY
YRANGE 18.75 18.75 FLOAD -4.125 XRANGE 0 2.76  ZRANGE -1 0  GY
YRANGE 22.5 22.5 FLOAD -4.125 XRANGE 0 2.76  ZRANGE -1 0  GY
YRANGE 26.25 26.25 FLOAD -4.125 XRANGE 0 2.76  ZRANGE -1 0  GY
YRANGE 30 30 FLOAD -4.125 XRANGE 0 2.76  ZRANGE -1 0  GY
YRANGE 33.75 33.75 FLOAD -4.125 XRANGE 0 2.76  ZRANGE -1 0  GY
YRANGE 34.95 34.95 FLOAD -14.25 XRANGE 0 2.76  ZRANGE 0 3.36  GY
YRANGE 37.5 37.5 FLOAD -4.125 XRANGE 0 2.76  ZRANGE -1 3.36  GY
***************************************************************
LOAD 2 LOADTYPE Live REDUCIBLE TITLE LL
FLOOR LOAD
YRANGE 3.75 3.75 FLOAD -2 XRANGE 0 2.76  ZRANGE -1 0  GY
YRANGE 7.5 7.5 FLOAD -2 XRANGE 0 2.76  ZRANGE -1 0  GY
YRANGE 11.25 11.25 FLOAD -2 XRANGE 0 2.76  ZRANGE -1 0  GY
YRANGE 15 15 FLOAD -2 XRANGE 0 2.76  ZRANGE -1 0  GY
YRANGE 18.75 18.75 FLOAD -2 XRANGE 0 2.76  ZRANGE -1 0  GY
YRANGE 22.5 22.5 FLOAD -2 XRANGE 0 2.76  ZRANGE -1 0  GY
YRANGE 26.25 26.25 FLOAD -2 XRANGE 0 2.76  ZRANGE -1 0  GY
YRANGE 30 30 FLOAD -2 XRANGE 0 2.76  ZRANGE -1 0  GY
YRANGE 33.75 33.75 FLOAD -2 XRANGE 0 2.76  ZRANGE -1 0  GY
YRANGE 34.95 34.95 FLOAD -2 XRANGE 0 2.76  ZRANGE 0 3.36  GY
YRANGE 37.5 37.5 FLOAD -2 XRANGE 0 2.76  ZRANGE -1 3.36  GY
********************************************************************
LOAD 3 WL+X
MEMBER LOAD
2 6 17 19 25 27 33 35 41 43 49 51 57 59 65 67 73 75 113 114 125 128 147 149 -
169 172 UNI GX 2.67
LOAD 4 WL-X
MEMBER LOAD
4 8 18 20 26 28 34 36 42 44 50 52 58 60 66 68 74 76 115 116 126 127 148 150 -
179 183 UNI GX -2.67
LOAD 5 WL+Z
MEMBER LOAD
2 4 17 18 25 26 33 34 41 42 49 50 57 58 65 66 73 74 113 116 125 127 147 148 -
169 179 UNI GZ 0.01
********************************************
LOAD 6 WL-Z
MEMBER LOAD
6 8 19 20 27 28 35 36 43 44 51 52 59 60 67 68 75 76 114 115 126 128 149 150 -
172 183 UNI GZ -2.19
********************************************
LOAD COMB 7 1.0(DL)+1.0(LL)
1 1.0 2 1.0 
LOAD COMB 8 1.0(DL)+1.0(WL+X)
1 1.0 3 1.0 
LOAD COMB 9 1.0(DL)+1.0(WL-X)
1 1.0 4 1.0 
LOAD COMB 10 1.0(DL)+1.0(WL+Z)
1 1.0 5 1.0 
LOAD COMB 11 1.0(DL)+1.0(WL-Z)
1 1.0 6 1.0 
LOAD COMB 12 1.0(DL)+0.8(LL)+0.8(WL+X)
1 1.0 2 0.8 3 0.8 
LOAD COMB 13 1.0(DL)+0.8(LL)+0.8(WL-X)
1 1.0 2 0.8 4 0.8 
LOAD COMB 14 1.0(DL)+0.8(LL)+0.8(WL+Z)
1 1.0 2 0.8 5 0.8 
LOAD COMB 15 1.0(DL)+0.8(LL)+0.8(WL-Z)
1 1.0 2 0.8 6 0.8 
LOAD COMB 16 1.5(DL)+1.5(LL)
1 1.5 2 1.5 
PERFORM ANALYSIS
LOAD LIST 7 TO 15
PRINT ANALYSIS RESULTS
PRINT SUPPORT REACTION
PARAMETER 1
CODE IS800 LSD
FYLD 310000 MEMB 2 4 6 8 13 TO 80 89 TO 158 167 169 170 172 173 175 177 179 -
181 183 184 186
MAIN 180 MEMB 2 4 6 8 13 TO 80 89 TO 158 167 169 170 172 173 175 177 179 181 -
183 184 186
CHECK CODE MEMB 2 4 6 8 13 TO 80 89 TO 158 167 169 170 172 173 175 177 179 -
181 183 184 186
STEEL MEMBER TAKE OFF LIST 2 4 6 8 13 TO 80 89 TO 158 167 169 170 172 173 -
175 177 179 181 183 184 186
LOAD LIST 16
START CONCRETE DESIGN
CODE INDIAN
FC 25000 MEMB 1 3 5 7
FYMAIN 500000 MEMB 1 3 5 7
FYSEC 500000 MEMB 1 3 5 7
DESIGN COLUMN 1 3 5 7
END CONCRETE DESIGN
PERFORM ANALYSIS
FINISH
